Circuit: * C:\Users\edoar\Desktop\elet_industriale\boost_ideale\boost_ideale.asc

Direct Newton iteration for .op point succeeded.
.step x=250
.step x=270
.step x=290
.step x=310
.step x=330
.step x=350
.step x=370
.step x=390
.step x=410
.step x=430
.step x=450
.step x=470
.step x=490
.step x=500


Measurement: pout
  step	AVG(v(out)*i(r1))	FROM	TO
     1	2.68021	0	0.003
     2	2.54783	0	0.003
     3	2.47066	0	0.003
     4	2.40674	0	0.003
     5	2.34826	0	0.003
     6	2.29392	0	0.003
     7	2.24296	0	0.003
     8	2.19491	0	0.003
     9	2.14979	0	0.003
    10	2.10693	0	0.003
    11	2.06601	0	0.003
    12	2.02698	0	0.003
    13	1.98965	0	0.003
    14	1.9714	0	0.003

Measurement: pin
  step	AVG(v(in)*i(v1))	FROM	TO
     1	-3.04303	0	0.003
     2	-2.914	0	0.003
     3	-2.8512	0	0.003
     4	-2.80993	0	0.003
     5	-2.77395	0	0.003
     6	-2.74216	0	0.003
     7	-2.71384	0	0.003
     8	-2.68836	0	0.003
     9	-2.66575	0	0.003
    10	-2.64531	0	0.003
    11	-2.62669	0	0.003
    12	-2.60977	0	0.003
    13	-2.5944	0	0.003
    14	-2.58704	0	0.003

Measurement: eff
  step	-pout/pin
     1	0.88077
     2	0.87434
     3	0.866531
     4	0.856511
     5	0.846541
     6	0.836539
     7	0.82649
     8	0.816446
     9	0.806446
    10	0.796477
    11	0.786542
    12	0.776687
    13	0.766903
    14	0.762031

Measurement: gain
  step	AVG(v(out)/v(in))	FROM	TO
     1	2.01873	0.002	0.003
     2	2.01884	0.002	0.003
     3	2.06069	0.002	0.003
     4	2.11116	0.002	0.003
     5	2.16075	0.002	0.003
     6	2.20913	0.002	0.003
     7	2.2564	0.002	0.003
     8	2.30234	0.002	0.003
     9	2.34691	0.002	0.003
    10	2.39033	0.002	0.003
    11	2.4324	0.002	0.003
    12	2.47317	0.002	0.003
    13	2.51275	0.002	0.003
    14	2.53208	0.002	0.003


Date: Thu Mar 16 10:39:52 2023
Total elapsed time: 4.780 seconds.

tnom = 27
temp = 27
method = modified trap
totiter = 103015
traniter = 103012
tranpoints = 45025
accept = 32401
rejected = 12624
matrix size = 6
fillins = 0
solver = Normal
Avg thread counts: 1.0/1.0/1.0/1.0
Matrix Compiler1:       9 opcodes  0.2/0.2/[0.2]
Matrix Compiler2: off  [0.1]/0.4/0.3

