Circuit: * C:\Users\edoar\Desktop\elet_industriale\boost_ideale\Draft1.asc

Direct Newton iteration for .op point succeeded.

Date: Thu Mar 16 11:23:44 2023
Total elapsed time: 0.831 seconds.

tnom = 27
temp = 27
method = modified trap
totiter = 169990
traniter = 169987
tranpoints = 79155
accept = 62279
rejected = 16876
matrix size = 7
fillins = 0
solver = Normal
Avg thread counts: 1.0/1.0/1.0/1.0
Matrix Compiler1: off  [0.1]/0.2/0.2
Matrix Compiler2: off  [0.1]/0.3/0.2

