Circuit: * C:\Users\edoar\Desktop\elet_industriale\buck_ideale\buck ideale.asc

Direct Newton iteration for .op point succeeded.
.step x=10
.step x=40
.step x=70
.step x=100
.step x=130
.step x=160
.step x=190
.step x=200


Measurement: gain
  step	AVG(v(out)/v(in))	FROM	TO
     1	0.501204	0.002	0.003
     2	0.504843	0.002	0.003
     3	0.50718	0.002	0.003
     4	0.567893	0.002	0.003
     5	0.612963	0.002	0.003
     6	0.648229	0.002	0.003
     7	0.676969	0.002	0.003
     8	0.68546	0.002	0.003


Date: Thu Mar 16 10:20:55 2023
Total elapsed time: 2.350 seconds.

tnom = 27
temp = 27
method = modified trap
totiter = 98137
traniter = 98133
tranpoints = 43128
accept = 31315
rejected = 11813
matrix size = 6
fillins = 0
solver = Normal
Avg thread counts: 1.0/1.0/1.0/1.0
Matrix Compiler1:       9 opcodes  0.1/0.1/[0.1]
Matrix Compiler2: off  [0.1]/0.2/0.1

