Circuit: * C:\Users\edoar\Desktop\elet_industriale\buck reale.asc

Direct Newton iteration for .op point succeeded.

Date: Thu Mar  9 10:44:29 2023
Total elapsed time: 0.491 seconds.

tnom = 27
temp = 27
method = modified trap
totiter = 199146
traniter = 199141
tranpoints = 71524
accept = 52137
rejected = 19387
matrix size = 11
fillins = 1
solver = Normal
Avg thread counts: 1.0/1.0/1.0/1.0
Matrix Compiler1: 566 bytes object code size  0.2/0.1/[0.1]
Matrix Compiler2: off  [0.1]/0.2/0.1

