Circuit: * C:\Users\edoar\Desktop\flyback\Flyback Converter Ideale.asc

Direct Newton iteration for .op point succeeded.

pout: AVG(v(out)*i(ro))=25.0671 FROM 0 TO 0.01
pin: AVG(v(in)*i(vi))=-26.5072 FROM 0 TO 0.01
eff: -pout/pin=0.94567


Date: Thu Apr 27 10:49:08 2023
Total elapsed time: 0.840 seconds.

tnom = 27
temp = 27
method = modified trap
totiter = 162852
traniter = 162849
tranpoints = 79308
accept = 62398
rejected = 16910
matrix size = 9
fillins = 0
solver = Normal
Avg thread counts: 1.0/1.0/1.0/1.0
Matrix Compiler1: 296 bytes object code size  0.2/0.2/[0.2]
Matrix Compiler2: off  [0.1]/0.3/0.2

