Circuit: * C:\Users\edoar\Desktop\elet_industriale\flyback\flyback.asc

Direct Newton iteration for .op point succeeded.

Date: Thu Mar 30 11:42:08 2023
Total elapsed time: 18.396 seconds.

tnom = 27
temp = 27
method = modified trap
totiter = 6624488
traniter = 6624479
tranpoints = 2069370
accept = 1401221
rejected = 668149
matrix size = 15
fillins = 6
solver = Normal
Avg thread counts: 1.0/1.0/1.0/1.0
Matrix Compiler1: 966 bytes object code size  0.3/0.4/[0.2]
Matrix Compiler2: off  [0.2]/0.5/0.4

