Circuit: * C:\Users\Gigi\OneDrive - unibs.it\DatiGigi\Documenti\Università\Corso Elettronica di Potenza\Esercitazioni\FlyBack Converter\Flyback LT3799.asc

Direct Newton iteration for .op point succeeded.
Ignoring empty pin current: Ix(u1:12)
Ignoring empty pin current: Ix(u1:12)
Heightened Def Con from 0.000615067 to 0.00061507
Heightened Def Con from 0.021215 