Circuit: * C:\Users\edoar\Desktop\flyback\Flyback Converter IRF510.asc

Direct Newton iteration for .op point succeeded.

Date: Thu Apr 27 10:51:56 2023
Total elapsed time: 2.193 seconds.

tnom = 27
temp = 27
method = modified trap
totiter = 514787
traniter = 514778
tranpoints = 195579
accept = 143724
rejected = 51855
matrix size = 14
fillins = 6
solver = Normal
Avg thread counts: 1.0/1.0/1.0/1.0
Matrix Compiler1: 916 bytes object code size  0.5/0.3/[0.3]
Matrix Compiler2: off  [0.3]/0.4/0.3

